LAMMPS (2 Aug 2023 - Update 3)
# A Simple input file to solvate two silicas
# Mahdi Tavakol (mahditavakol90@gmail.com)

# ------------------------ INITIALIZATION ----------------------------
units          real
boundary       p p p
atom_style     full

# ------------------- Neighbor generation and skin ---------------------
neigh_modify   delay 1
neighbor       2 bin

# -------------------------- VARIABLES --------------------------------
variable       temp       equal 300
variable       timestep   equal 1.0
variable       tDamp      equal 100.0*1
variable       press      equal 0.0
variable       pDamp      equal 1000.0*1
variable       R          equal 10000 #10000000              # 10ns
variable       step       equal step
variable       dumpFreq   equal 100                # 100ps
variable       thermoFreq equal 100 #1000                  # 100ps
variable       Nfreq      equal 100
variable       Nrepeat    equal 10
variable       Nevery     equal 1000

#######################################################################
variable       TIscale    equal  0.50

# --------------------- Forcefield ------------------------------------
bond_style     harmonic
angle_style    harmonic
dihedral_style harmonic
improper_style harmonic
pair_style     lj/charmm/coul/long 10 12
kspace_style   pppm 1.0e-6

# ----------------------- READ DATA FILE ------------------------------
read_data      EQ-Res-30000000-0.50.dat
Reading data file ...
  orthogonal box = (-0.28866128 0.70009451 -40.91706) to (37.368482 33.294443 71.350146)
  reading atoms ...
  13569 atoms
  reading velocities ...
  13569 velocities
  scanning bonds ...
  scanning angles ...
  scanning dihedrals ...
  reading bonds ...
  8934 bonds
  reading angles ...
  6023 angles
  reading dihedrals ...
  408 dihedrals
Finding 1-2 1-3 1-4 neighbors ...
     4 = max # of 1-2 neighbors
     3 = max # of 1-3 neighbors
     5 = max # of 1-4 neighbors
     6 = max # of special neighbors

#######################################################################
group          HAp      type <= 5
2804 atoms in group HAp

#######################################################################
group          TI       type 2
556 atoms in group TI
Setting atom values ...
  274 settings made for type/fraction
group          TI2      type 10
274 atoms in group TI2
variable       TI2count equal count(TI2)
variable       q        atom "1.5 + v_TIscale*(1.8-1.5)"
set            type     10 charge v_q
Setting atom values ...
  274 settings made for charge
group          P        type 3
384 atoms in group P
variable       Pcount   equal count(P)
variable       Pq       atom "1-(v_TIscale*v_TI2count*(1.8-1.5)/v_Pcount)"
set            group    P charge v_Pq
Setting atom values ...
  384 settings made for charge

# ------------------ Thermodynamic Integration Compute ----------------

compute        TI HAp thermo_integ 0.5 0.02  single 10 pair lj/charmm/coul/long 0.1299984877 0.015 charge 1.5 1.8 3
#compute        TI all thermo_integ single 10 pair lj/charmm/coul/long 0.005
#compute        TI all thermo_integ single 10 charge 0.001 3

variable       dudepsilon equal c_TI[1]
variable       dudcharge  equal c_TI[2]
variable       dudlambda  equal c_TI[3]
variable       uA         equal c_TI[4]
variable       uB         equal c_TI[5]

compute        pe1 HAp pe/atom pair kspace
compute        pe2 all pe/atom pair kspace
compute        peA HAp reduce sum c_pe1
compute        peB all reduce sum c_pe2

variable       cHAp  equal count(HAp)

variable       peHAp equal c_peA/v_cHAp
variable       peAll equal c_peB

# -------------------------- SETTINGS ---------------------------------
#### Computes Required
compute        mytemp all   temp
thermo         100
thermo_style   custom step temp etotal epair ebond eangle v_dudepsilon v_dudcharge v_dudlambda press density pxx pyy pzz lx ly lz spcpu
restart        10000 restart1.bin restart2.bin

shell          mkdir dump
shell          cd dump

# ------------------- Simulation Parameters ---------------------------
timestep       1
timestep       1
dump           2 all custom 100 dump.npt.lammpstrj mass id mol q type xs ys zs
dump_modify    2 element O Ca P O H O H Na Cl Mg

# -----------------------     -----------------------------------
fix            3 all shake 0.0001 20 1000 b 4 a 3
Finding SHAKE clusters ...
       0 = # of size 2 clusters
       0 = # of size 3 clusters
       0 = # of size 4 clusters
    3583 = # of frozen angles
  find clusters CPU = 0.001 seconds
fix            1 all npt temp 300 300 100 aniso 0 0 1000 drag 2.0
#fix            5 all recenter NULL NULL INIT units box

run            $R
run            10000
PPPM initialization ...
  G vector (1/distance) = 0.2832127
  grid = 50 45 108
  stencil order = 5
  estimated absolute RMS force accuracy = 0.00039051915
  estimated relative force accuracy = 1.1760368e-06
  3d grid and FFT values/proc = 17280 6750
Generated 45 of 45 mixed pair_coeff terms from arithmetic mixing rule
SHAKE stats (type/ave/delta/count) on step 0
Bond:   4   0.957202  1.06577e-05     7166
Angle:  3   104.52    0.00118575      3583
Step          Temp          TotEng         E_pair         E_bond        E_angle      v_dudepsilon   v_dudcharge    v_dudlambda       Press         Density          Pxx            Pyy            Pzz             Lx             Ly             Lz           S/CPU
0   295.27817     -299865.83     -310805.66      1113.0719      1038.2719     -0.30376698    -8.0549282     -8.3586952     -15503.044      1.4867815     -15095.458     -15070.49      -16343.184      37.657143      32.594348      112.26721      0
Bond:   4   0.9572    1.98767e-05     7166
Angle:  3   104.52    0.00224073      3583
SHAKE stats (type/ave/delta/count) on step 2000
Bond:   4   0.957202  1.00969e-05     7166
Angle:  3   104.52    0.00108417      3583
SHAKE stats (type/ave/delta/count) on step 3000
Bond:   4   0.957201  5.04328e-06     7166
Angle:  3   104.52    0.000536977     3583
SHAKE stats (type/ave/delta/count) on step 4000
Bond:   4   0.957199  8.28648e-06     7166
Angle:  3   104.52    0.000910393     3583
SHAKE stats (type/ave/delta/count) on step 5000
Bond:   4   0.957197  3.72209e-06     7166
Angle:  3   104.52    0.000406953     3583
SHAKE stats (type/ave/delta/count) on step 6000
Bond:   4   0.957205  7.57784e-06     7166
Angle:  3   104.52    0.000818083     3583
SHAKE stats (type/ave/delta/count) on step 7000
Bond:   4   0.957204  5.27827e-06     7166
Angle:  3   104.52    0.000573051     3583
SHAKE stats (type/ave/delta/count) on step 8000
Bond:   4   0.957199  5.64293e-06     7166
Angle:  3   104.52    0.000639961     3583
SHAKE stats (type/ave/delta/count) on step 9000
Bond:   4   0.957203  6.61645e-06     7166
Angle:  3   104.52    0.000748483     3583
SHAKE stats (type/ave/delta/count) on step 10000
Bond:   4   0.957202  6.82852e-06     7166
Angle:  3   104.52    0.000756805     3583
Loop time of 94.775 on 40 procs for 10000 steps with 13569 atoms

# --------- Writting the output coordinates and velocities ------------
write_data     TI.dat pair ij
System init for write_data ...
PPPM initialization ...
  G vector (1/distance) = 0.28448136
  grid = 48 45 120
  stencil order = 5
  estimated absolute RMS force accuracy = 0.00035319136
  estimated relative force accuracy = 1.0636253e-06
  3d grid and FFT values/proc = 17670 6624
Generated 45 of 45 mixed pair_coeff terms from arithmetic mixing rule
